LTspice 24.0.12 for Windows
Circuit: * C:\Users\Sebastian Moreno\Documents\GitHub\Digital_2024_2\Lab_01\SN70LS04\SPICE\Simulacion1.asc
Start Time: Thu Nov 21 11:37:41 2024
solver = Normal
Maximum thread count: 12
tnom = 27
temp = 27
method = modified trap
WARNING: Less than two connections to node u1:u1:ua:test.  This node is used by e:u1:u1:ua:test.
WARNING: Less than two connections to node u1:u1:ua:vth_diff.  This node is used by e:u1:u1:ua:vthdiff.
WARNING: Less than two connections to node u1:u1:ub:test.  This node is used by e:u1:u1:ub:test.
WARNING: Less than two connections to node u1:u1:ub:vth_diff.  This node is used by e:u1:u1:ub:vthdiff.
Per .tran options, skipping operating point for transient analysis.
Changing Tseed to 4.88281e-10
Changing Tseed to 4.88281e-12
Changing Tseed to 4.88281e-09
Total elapsed time: 0.109 seconds.

